data_DUT-49op-DFT
_cell_length_a                  46.7237
_cell_length_b                  46.7237
_cell_length_c                  46.7237
_cell_angle_alpha               90.0000
_cell_angle_beta                90.0000
_cell_angle_gamma               90.0000

_symmetry_space_group_name_H-M     'P a 3'
_symmetry_Int_Tables_number         205
_symmetry_cell_setting             cubic
loop_
_symmetry_equiv_pos_as_xyz
'+x,+y,+z'
'+z,+x,+y'
'+y,+z,+x'
'1/2+x,+y,1/2-z'
'1/2+z,+x,1/2-y'
'1/2+y,+z,1/2-x'
'1/2-x,1/2+y,+z'
'1/2-z,1/2+x,+y'
'1/2-y,1/2+z,+x'
'-x,1/2+y,1/2-z'
'-z,1/2+x,1/2-y'
'-y,1/2+z,1/2-x'
'-x,-y,-z'
'-z,-x,-y'
'-y,-z,-x'
'1/2-x,-y,1/2+z'
'1/2-z,-x,1/2+y'
'1/2-y,-z,1/2+x'
'1/2+x,1/2-y,-z'
'1/2+z,1/2-x,-y'
'1/2+y,1/2-z,-x'
'+x,1/2-y,1/2+z'
'+z,1/2-x,1/2+y'
'+y,1/2-z,1/2+x'

loop_
_atom_site_label
_atom_site_type_symbol
_atom_site_occupancy
_atom_site_fract_x
_atom_site_fract_y
_atom_site_fract_z
    C1    C  1.0000      0.5542   -0.0000    0.3218
    C2    C  1.0000      0.3218    0.0542    0.5000
    C3    C  1.0000     -0.0000    0.0542   -0.1782
    C4    C  1.0000     -0.0000    0.5542    0.3218
    C5    C  1.0000      0.6782    0.0860    0.5000
    C6    C  1.0000     -0.1782    0.0000    0.0860
    C7    C  1.0000      0.3218    0.5000    0.0860
    C8    C  1.0000      0.0000   -0.1782    0.0860
    C9    C  1.0000     -0.1521   -0.0000   -0.1008
   C10    C  1.0000      0.1008   -0.0000   -0.1521
   C11    C  1.0000      0.6008    0.5000   -0.1521
   C12    C  1.0000     -0.0000    0.1008   -0.1521
   C13    C  1.0000      0.3474   -0.1307    0.5000
   C14    C  1.0000      0.1526    0.5000    0.3693
   C15    C  1.0000      0.6526    0.5000   -0.1307
   C16    C  1.0000     -0.0000    0.1526   -0.1307
   C17    C  1.0000      0.1794    0.1452   -0.0000
   C18    C  1.0000      0.1452   -0.0000   -0.1794
   C19    C  1.0000     -0.0000    0.1452   -0.1794
   C20    C  1.0000     -0.0000    0.6452    0.3206
   C21    C  1.0000      0.3693   -0.2056    0.5000
   C22    C  1.0000      0.6307    0.5000   -0.2056
   C23    C  1.0000     -0.2056    0.1307   -0.0000
   C24    C  1.0000     -0.0000    0.1307   -0.2056
   C25    C  1.0000      0.2954    0.5000    0.1009
   C26    C  1.0000      0.2046   -0.0000   -0.1009
   C27    C  1.0000     -0.0000    0.2046   -0.1009
   C28    C  1.0000     -0.0000    0.7046    0.3991
   C29    C  1.0000      0.1959   -0.0000   -0.1959
   C30    C  1.0000      0.6959   -0.0000    0.3041
   C31    C  1.0000      0.5259   -0.2065    0.2935
   C32    C  1.0000     -0.0259    0.7065    0.2935
   C33    C  1.0000      0.4741    0.7065   -0.2065
   C34    C  1.0000      0.4741    0.2065    0.2935
   C35    C  1.0000     -0.0258    0.2276   -0.2276
   C36    C  1.0000      0.2276   -0.0258   -0.2276
   C37    C  1.0000      0.7276    0.4742   -0.2276
   C38    C  1.0000      0.7276   -0.0258    0.2724
   C39    C  1.0000     -0.2388    0.5000    0.7388
   C40    C  1.0000      0.7388    0.2612    0.0000
   Cu1    Cu 1.0000     -0.0000    0.5000    0.6524
   Cu2    Cu 1.0000      0.2039   -0.0000   -0.0000
    H1    H  1.0000      0.2645   -0.2355    0.5465
    H2    H  1.0000      0.2355    0.0465   -0.2355
    H3    H  1.0000      0.2355    0.5465    0.2645
    H4    H  1.0000      0.7355    0.5465   -0.2355
    H5    H  1.0000     -0.1321   -0.0000   -0.0887
    H6    H  1.0000      0.0887   -0.0000   -0.1321
    H7    H  1.0000      0.5887    0.5000   -0.1321
    H8    H  1.0000     -0.0000    0.0887   -0.1321
    H9    H  1.0000      0.2741   -0.1424    0.5000
   H10    H  1.0000      0.2259    0.5000    0.3576
   H11    H  1.0000      0.7259    0.5000   -0.1424
   H12    H  1.0000     -0.0000    0.2259   -0.1424
   H13    H  1.0000      0.0882    0.2243   -0.0000
   H14    H  1.0000      0.2243   -0.0000   -0.0882
   H15    H  1.0000     -0.0000    0.2243   -0.0882
   H16    H  1.0000     -0.0000    0.7243    0.4118
   H17    H  1.0000      0.1980    0.4539    0.3020
   H18    H  1.0000      0.3020    0.4539    0.1980
   H19    H  1.0000      0.3020   -0.0461    0.6980
   H20    H  1.0000      0.6980   -0.1980    0.4539
    N1    N  1.0000      0.6745    0.1745    0.5000
    N2    N  1.0000     -0.1745    0.5000    0.6745
    O1    O  1.0000      0.3461    0.5417   -0.0000
    O2    O  1.0000     -0.0417    0.0000    0.1539
    O3    O  1.0000      0.0000   -0.0417    0.1539
    O4    O  1.0000      0.0000    0.4583    0.6539
    O5    O  1.0000      0.4583    0.2026    0.5000
    O6    O  1.0000      0.0417    0.5000    0.7026
    O7    O  1.0000      0.5417    0.5000    0.2026
    O8    O  1.0000      0.0000    0.0417    0.2026


