data_DUT-49cp-DFT
_cell_length_a                  36.1803
_cell_length_b                  36.1803
_cell_length_c                  36.1803
_cell_angle_alpha               90.0000
_cell_angle_beta                90.0000
_cell_angle_gamma               90.0000

_symmetry_space_group_name_H-M     'P a 3'
_symmetry_Int_Tables_number         205
_symmetry_cell_setting             cubic
loop_
_symmetry_equiv_pos_as_xyz
'+x,+y,+z'
'+z,+x,+y'
'+y,+z,+x'
'1/2+x,+y,1/2-z'
'1/2+z,+x,1/2-y'
'1/2+y,+z,1/2-x'
'1/2-x,1/2+y,+z'
'1/2-z,1/2+x,+y'
'1/2-y,1/2+z,+x'
'-x,1/2+y,1/2-z'
'-z,1/2+x,1/2-y'
'-y,1/2+z,1/2-x'
'-x,-y,-z'
'-z,-x,-y'
'-y,-z,-x'
'1/2-x,-y,1/2+z'
'1/2-z,-x,1/2+y'
'1/2-y,-z,1/2+x'
'1/2+x,1/2-y,-z'
'1/2+z,1/2-x,-y'
'1/2+y,1/2-z,-x'
'+x,1/2-y,1/2+z'
'+z,1/2-x,1/2+y'
'+y,1/2-z,1/2+x'

loop_
_atom_site_label
_atom_site_type_symbol
_atom_site_occupancy
_atom_site_fract_x
_atom_site_fract_y
_atom_site_fract_z
    C1    C  1.0000      0.0277   -0.2856    0.1721
    C2    C  1.0000      0.0274   -0.3000    0.1361
    C3    C  1.0000      0.0481   -0.3032    0.1999
    C4    C  1.0000      0.0513   -0.3289    0.1272
    C5    C  1.0000      0.0715   -0.3327    0.1908
    C6    C  1.0000      0.0751   -0.3442    0.1539
    C7    C  1.0000      0.1075   -0.3656    0.1405
    C8    C  1.0000      0.1134   -0.4037    0.1446
    C9    C  1.0000      0.1341   -0.3447    0.1212
   C10    C  1.0000      0.1445   -0.4207    0.1290
   C11    C  1.0000      0.1657   -0.3610    0.1066
   C12    C  1.0000      0.1708   -0.3993    0.1098
   C13    C  1.0000      0.3774    0.3279   -0.1028
   C14    C  1.0000      0.3919    0.3926   -0.1779
   C15    C  1.0000      0.4722    0.2928   -0.1216
   C16    C  1.0000      0.4791    0.3554   -0.1944
   C17    C  1.0000     -0.1273   -0.4958    0.2313
   C18    C  1.0000     -0.1204   -0.4662    0.2076
   C19    C  1.0000     -0.1102   -0.4985    0.2663
   C20    C  1.0000     -0.0938    0.3123    0.3071
   C21    C  1.0000     -0.0955   -0.4389    0.2196
   C22    C  1.0000     -0.0785    0.3447    0.3226
   C23    C  1.0000     -0.0736    0.2796    0.3052
   C24    C  1.0000     -0.0839   -0.4722    0.2772
   C25    C  1.0000     -0.0763   -0.4426    0.2537
   C26    C  1.0000     -0.0585   -0.3884    0.2253
   C27    C  1.0000     -0.0522   -0.4109    0.2569
   C28    C  1.0000     -0.0418    0.3452    0.3352
   C29    C  1.0000     -0.0415   -0.3539    0.2213
   C30    C  1.0000     -0.0373    0.2802    0.3184
   C31    C  1.0000     -0.0268   -0.4000    0.2837
   C32    C  1.0000     -0.0208    0.3128    0.3329
   C33    C  1.0000     -0.0164   -0.3433    0.2485
   C34    C  1.0000     -0.0082   -0.3664    0.2789
   C35    C  1.0000      0.0157    0.3023    0.3458
   C36    C  1.0000      0.0193    0.2636    0.3393
   C37    C  1.0000      0.0445    0.3215    0.3630
   C38    C  1.0000      0.0512    0.2441    0.3495
   C39    C  1.0000      0.0767    0.3023    0.3729
   C40    C  1.0000      0.0799    0.2640    0.3658
   Cu1    Cu 1.0000      0.4175    0.3190   -0.1691
   Cu2    Cu 1.0000      0.4406    0.3637   -0.1258
    H1    H  1.0000      0.0107   -0.2863    0.1147
    H2    H  1.0000      0.0474   -0.2927    0.2284
    H3    H  1.0000      0.0536   -0.3383    0.0984
    H4    H  1.0000      0.0889   -0.3450    0.2125
    H5    H  1.0000      0.0929   -0.4206    0.1593
    H6    H  1.0000      0.1299   -0.3147    0.1185
    H7    H  1.0000      0.1480   -0.4508    0.1307
    H8    H  1.0000      0.1869   -0.3442    0.0929
    H9    H  1.0000     -0.1471    0.4826    0.2234
   H10    H  1.0000     -0.1341   -0.4642    0.1807
   H11    H  1.0000     -0.1225    0.3132    0.2976
   H12    H  1.0000     -0.0860    0.2541    0.2946
   H13    H  1.0000     -0.0706   -0.4749    0.3043
   H14    H  1.0000     -0.0477   -0.3355    0.1981
   H15    H  1.0000     -0.0308    0.3705    0.3478
   H16    H  1.0000     -0.0208   -0.4170    0.3081
   H17    H  1.0000     -0.0025   -0.3166    0.2466
   H18    H  1.0000      0.0425    0.3511    0.3693
   H19    H  1.0000      0.0535    0.2142    0.3447
   H20    H  1.0000      0.1056    0.2501    0.3738
    N1    N  1.0000     -0.0845   -0.4059    0.2027
    N2    N  1.0000     -0.0126    0.2504    0.3221
    O1    O  1.0000      0.3760    0.3138   -0.1353
    O2    O  1.0000      0.3943    0.3615   -0.1945
    O3    O  1.0000      0.4042    0.3470   -0.0899
    O4    O  1.0000      0.4051    0.3996   -0.1458
    O5    O  1.0000      0.4466    0.2811   -0.1431
    O6    O  1.0000      0.4602    0.3262   -0.2017
    O7    O  1.0000      0.4756    0.3260   -0.1099
    O8    O  1.0000      0.4744    0.3764   -0.1663


